           98
 charge=0
 O         -1.85163157110              1.02054207091             -5.22578092909
 O         0.992671428903              1.00545907091              3.31182707091
 O         -1.90646657110             0.499356070909              1.51336207091
 O          2.41663942890            -0.647571929091            -0.887974929091
 O          2.68374742890            -0.539348929091             -3.83368792909
 O         -3.71883157110             -2.12253292909              4.68854307091
 O          4.21512642890              1.79818407091              1.24842307091
 O         -3.20820757110             -1.56043892909            -0.504697929091
 O         0.208516428903              3.34824507091             -2.34527892909
 O         0.713412428903             -4.61707792909              1.65522207091
 O        -0.302564571097              2.47265707091              5.25915407091
 O        -0.584781571097             -1.61695092909             -5.07666892909
 O         -5.61639057110              2.02322007091             -2.28780192909
 O          5.90239242890            -0.974722929091              2.22055207091
 O        -0.843394571097            -0.790005929091             -1.20826292909
 O          1.62239542890             0.908929070909             0.797959070909
 O         -3.02847557110          -2.907492909118E-02            3.72980107091
 O         0.432147428903             0.693402070909             -3.14760492909
 O          4.73854442890            -0.980038929091             -1.69103192909
 O         -4.71906057110            -0.195186929091              1.97392307091
 O          3.29879142890              1.46215807091              4.21885507091
 O         -3.52297157110             -1.11544892909             -4.60711892909
 O         -4.58964157110              1.31155507091             -4.97848292909
 O          1.51638342890            -0.633524929091              5.06236707091
 O         -3.91299357110              1.16199707091          -8.642392909118E-02
 O          4.32785042890             -2.10586592909             0.417267070909
 O          1.14316342890             0.928821070909             -5.63002492909
 O         -1.10176257110             -1.05517992909              5.20629707091
 O          2.93273942890              2.32342607091            -0.969500929091
 O         -1.00687057110             -3.24583792909            -0.308657929091
 O          6.98820042890             0.448760070909             0.424276070909
 O         -6.74607457110             0.930170070909            -0.111649929091
 O        -0.434484571097              1.78569707091            -0.320167929091
 O          2.03465342890             -2.80975392909             0.229340070909
 O         -1.90186157110              4.47275707091              4.26105407091
 O          1.66260842890             -3.27373692909             -5.26550092909
 O         -5.52570757110            -0.637958929091             -1.72246992909
 O          6.56787242890              1.44181407091              2.67778007091
 O         -2.27583357110             -2.33641892909             -2.67345692909
 O          2.10676442890              3.32703507091              1.51337607091
 O         -1.49287957110             -2.45281392909              3.20141607091
 O          2.73235842890              1.89989807091             -3.54375492909
 O          2.98924842890             -3.03222492909             -2.02828892909
 O         -3.96031057110              2.19579607091              2.38233107091
 O          3.20894442890            -0.652437929091              2.87345507091
 O         -2.87090257110             0.734062070909             -2.98448192909
 O         0.465156428903             -2.77415992909             -3.08391292909
 O        -0.926520571097              2.98234007091              2.60479907091
 O          1.02059242890             -2.22785192909              2.37917107091
 O         -2.15106457110              2.94051307091             -1.79239092909
 Mg         -3.82865357110              2.10984307091             -1.85483692909
 Mg          5.90738942890             -1.02074492909          -8.920192909118E-02
 Mg        -0.422798571097           1.320807090882E-02           -6.02397492909
 Mg        -0.168800571097             0.642632070909              5.24963307091
 Mg         0.826190428903             0.422396070909             -1.07431192909
 Mg         -3.96880257110             -1.18010692909             -2.60064892909
 Mg          4.77137542890             0.729293070909              2.98831707091
 Mg         -4.90569657110             -1.07010592909              3.71896907091
 Mg          3.66380042890             0.516012070909             -2.25283292909
 Mg        -0.548591571097             -1.01125892909             -3.18118992909
 Mg        -0.140155571097              1.39615807091              1.78803707091
 Mg         -6.22772357110              1.54958407091             -4.14621692909
 Mg         -5.41780757110              1.77578707091             0.923415070909
 Mg          4.52501242890             -2.31952392909              2.33028407091
 Mg         -1.07946457110              2.00290507091             -3.44753192909
 Mg         0.449782428903             -2.04412292909              4.17022407091
 Mg         0.419140428903              4.30260507091              1.64857107091
 Mg          1.01068042890             -3.36767692909             -1.32036092909
 Mg          6.05662442890              2.06758207091             0.906139070909
 Mg         -4.76969657110            -0.698336929091           6.906907090882E-02
 Mg         -2.07645057110             0.619678070909            -0.412579929091
 Mg          2.10149542890            -0.926614929091              1.19971407091
 Mg         -2.79520257110              3.62238207091              2.81021607091
 Mg          2.69565542890             -2.43890492909             -3.84203792909
 Mg          2.04464942890              3.18461507091             -2.38440192909
 Mg        -0.778390571097             -3.33153192909              1.65887407091
 Mg          2.20765242890              2.96135507091              3.54880807091
 Mg         -2.41369857110             -2.70673892909             -4.64966392909
 Si         -3.27663157110             0.511242070909             -4.61564092909
 Si          2.28045042890             0.205710070909              3.92187107091
 Si         -3.27188257110             0.692713070909              2.27766407091
 Si          3.50340342890             -1.92411192909            -0.976429929091
 Si          1.79729142890             0.738172070909             -4.21593692909
 Si         -2.29711357110             -1.55275092909              4.25783107091
 Si          2.74243542890              2.10470607091             0.635201070909
 Si         -1.83694957110             -2.15617692909             -1.09660292909
 Si          7.28261842890           1.659907090882E-02            2.10388807091
 Si         -6.51045657110             0.717900070909             -1.70143192909
 Si        -0.756904571097              3.26779607091             -1.01677192909
 Si          1.89561542890             -3.57301192909              1.71986807091
 Si        -0.557652571097              3.61370607091              4.20217407091
 Si         0.201283428903             -3.15394892909             -4.71693292909
 O          8.61455742890            -0.492801929091              2.49496807091
 O         -7.51383557110             0.673710070909             -2.92842092909
 O        -0.583516571097              4.40964507091           5.764507090882E-02
 O          3.23953142890             -3.70216792909              2.52481607091
 O         0.840031428903              4.32181007091              3.68027707091
 O         -1.06805857110             -4.04463092909             -5.00395092909
